CR471304C
WK928214B
MY202923A
JY 94 89 01 D
XX945040D
GK 27 56 69 C
NK 16 40 76 A
GT 48 08 34 A
KC 51 10 08 D
PK675160D
NK628720D
KA 23 88 57 B
AZ901360C
BG645340B
ZK 36 04 67 B
ZM 52 95 47 D
TY957014B
AG 73 99 78 D
EG 36 98 94 B
TP 78 37 21 C
RA265434B
WY124946B
AE253489A
PA 19 69 80 B
GR 86 46 13 C
GJ 52 49 87 D
YL 60 07 15 A
ZB 23 96 59 A
MA192910B
EW 89 96 11 B
AW662060D
GH 13 32 52 B
WW 79 34 75 C
EY910723C
NR 53 62 98 D
BX246338D
BJ476087A
EX 31 46 40 D
TJ834571B
HG284304B
YT 44 28 44 A
XY 02 38 07 C
LB732103C
YM828498C
WK706568C
KZ820287B
BX 74 50 10 A
CH712765B
YJ831408D
LH 50 83 68 D
KX201250A
ZC564366D
CK 73 26 78 C
ZY 02 84 59 C
PE 97 46 98 C
PN 87 26 94 C
EP 30 22 78 D
ZX189147A
AN 24 00 82 B
YG149700D
NW 11 84 66 D
WH564025A
ZJ162077D
PE483621D
NK 98 44 64 B
WB 39 68 30 B
NP526624B
JC657063D
PW 29 49 07 C
TG722353B
HG 35 63 76 B
LL274552A
ZM 98 69 24 C
MP693892C
NN558011A
TZ 75 54 51 A
HK 66 94 00 C
YH769202A
BT453440B
KE401083B
LY649914C
MB 47 53 92 B
EB 90 15 18 A
ZE 53 20 24 B
ML 77 84 97 A
NA 64 31 71 B
PR604433C
NW 52 96 50 A
JT123711C
RY580076D
JB 06 99 79 B
CE654534B
ZB 43 79 78 C
PH 80 29 17 B
HW753267C
NC 20 73 00 C
JT 80 95 54 C
WE924199A
NG917230A
KZ 36 06 08 B
BL138792D
ZM392009C
LZ470191C
EW 06 13 41 C
GB904517C
MK166655D
EM 25 21 99 A
JE075546D
AW 67 22 72 B
JP 78 39 25 B
ZB442005A
ZH931636A
HW 99 74 85 A
EL 41 36 72 C
BJ541516B
MC902080A
XC 91 70 36 C
YW353049C
NW728353B
AR 22 53 21 C
XK918336D
BB809428B
LR408962C
MB 71 35 14 D
LP 16 85 52 B
JB273487C
ZH 24 41 90 A
KE 62 88 56 C
XN664775C
AX277602B
KK 82 49 66 A
HN943241B
XY 60 43 46 A
WZ 99 77 18 B
PJ466241C
CR 75 10 44 C
RX477271B
ZB962028D
XP 78 16 68 C
WR 71 05 16 A
CT361512A
TE 29 98 87 A
YP085018D
MG 01 31 57 B
LR430293B
ZK 21 38 80 B
GW 01 02 30 A
PC590190C
HK214667D
HY045174A
PM082136B
ZM189585A
HG241041D
CZ 70 72 89 B
GZ 34 05 46 A
AK 02 76 17 C
WM 29 25 00 B
JT 68 91 14 C
MH633851D
XR410342A
AY111508B
LT 87 60 81 A
PC 71 32 46 D
YT350861A
WW 83 30 87 D
AN 36 73 14 C
HR470252D
YK 17 65 63 C
HP 92 33 72 C
AZ 24 81 52 C
RY564298C
PC 07 03 39 A
ZM962729B
EJ 36 30 81 A
RB 51 64 76 D
NW 35 31 34 B
CP781456C
EE 07 81 98 B
WC697736D
PC605851D
HM 98 64 12 A
LM 65 63 64 C
YH 49 27 62 D
PJ 58 57 01 A
HE348190D
WZ189447D
LC 51 90 63 D
ME 64 64 20 D
LE 96 49 44 B
CE 67 39 94 C
XW398955A
CE 20 51 48 C
CH 51 54 42 A
MH 78 36 20 C
ML 10 90 80 A
XK011653A
AC868223A
LZ 40 42 20 A
YJ816765C
XZ 20 42 05 D
HW 48 91 55 D
EW261777B
PN 31 84 76 A
GK 81 23 40 C
HE 10 47 30 B
RN018494C
BR919674A
CN 55 98 23 A
WH166169C
NC209938B
ZW 73 72 93 B
MB 04 35 62 C
MA363128A
EE074284D
BG117383B
YL 30 19 31 A
AP 13 26 78 D
EH604946C
TY 53 27 04 B
TR 81 89 81 B
NJ 74 68 35 D
PM965084C
HW 30 16 31 B
NG888493D
GC 68 32 87 D
LW 72 37 69 A
MW 52 04 44 A
XA045839C
GN615331D
PG002765C
AK189947C
ZZ596169C
BA485008A
RC 72 18 52 A
NH 77 03 51 A
AP303255A
HY 84 53 36 C
BE 19 65 77 B
HB914161B
KH641367C
CH 46 80 01 D
ZE260010C
KB704501A
TW 53 88 38 A
JM389493C
BN 65 82 82 C
HC 21 53 62 D
JT991323C
LA 49 58 65 C
CG 11 14 17 B
EB 14 87 09 A
LM 14 46 84 A
TT329744A
RL 40 01 18 C
GL842816C
YL963689C
CX 28 37 67 C
NR 47 76 21 C
WT 17 35 83 C
LN102186C
KB361090B
CB985488D
TZ889039C
JK 79 51 03 B
EA 93 93 24 C
MB338190D
MM 01 19 37 C
YM662006C
XE 24 13 44 B
WM889141A
HY 14 54 65 C
MZ 26 99 89 A
XM 86 84 64 B
YT 93 65 01 C
LX 76 55 37 A
EH913236D
AK 28 46 02 B
NK 91 53 14 C
XN 82 47 78 C
KR736942A
LH 05 72 38 A
YH 59 16 44 C
PY 81 64 50 D
XY 20 30 00 A
XC 12 51 43 C
GW781015A
YP856889A
XG916775C
BE735327D
BZ 74 21 64 C
XH166474A
JM736800C
HX029485A
CE 09 56 27 B
RB224485C
YZ665189B
PT 95 68 61 B
CJ050306B
KE979930A
NY084121C
YP446727B
LZ439837A
LT 71 06 15 D
MT836350D
ZG 65 50 97 C
EY 11 70 66 A
MA387094C
LM 03 78 20 A
CA 50 51 62 A
XP 67 83 38 C
KR062758B
NK 62 76 75 D
CN 79 03 73 B
YB 48 14 73 C
CY929161B
WX972329A
BH 18 93 70 C
XH996947C
NA 81 64 24 C
NY 53 35 92 D
HE 22 07 68 D
PK880254C
JL 37 65 23 B
CR 42 19 70 D
ZW137120B
MW905902C
RB058223A
PC821690B
KK 97 53 70 B
KJ 23 52 11 A
JY 58 83 56 C
AC 05 27 34 A
JJ 08 94 04 B
AP 10 85 43 C
ZR 12 11 39 B
KJ768557C
MW922114A
CK385987C
EB 82 60 43 A
LB 66 12 81 D
CG953575D
RH376023B
XY903207D
BN 75 78 89 A
PZ998212A
RW 96 37 89 C
EC 82 59 20 C
LR 50 28 42 B
GY742081D
PN 11 96 54 D
LT 35 53 87 A
LJ435008A
AL982449D
CX 64 08 79 C
WN682510C
CK 55 24 36 B
ZG913916C
LP005044B
LE046495A
PY 77 13 56 B
HK 15 41 10 A
AJ 45 94 63 A
NH 32 22 97 A
RG 88 44 62 D
GR864298D
XY372156A
ER286775A
PY 06 98 02 D
YX946305B
JY 23 93 74 D
WW961315B
HX026643A
XL698054B
KM 28 09 90 D
TE 34 32 07 A
RP 89 92 69 A
XG952281D
XZ636041C
BX872589D
AA 05 66 92 D
CG 76 61 31 A
RR406581C
HK 06 85 33 D
WZ150074D
AH 65 97 44 A
TG 02 78 67 D
ZZ 79 18 09 A
RE 86 35 33 B
LY839944C
YX 85 64 91 B
LR290331A
WL 14 69 05 B
ZE034514A
JT 27 99 85 A
HH742713C
GN 00 73 26 A
YW888961A
HG 27 59 22 D
XK 71 69 41 C
RM 75 47 48 C
LA463028D
CX 11 66 95 B
TN 36 25 97 A
JG 32 36 53 C
RN 70 24 37 D
YA903914B
MY 45 27 07 C
LJ 56 94 38 B
ZN626068C
RT886566B
PX282119C
XH497611B
RH088016A
KZ 19 30 66 D
ER 09 41 42 B
CA 56 54 75 C
XZ 46 84 54 A
RE 34 20 37 A
GC 80 24 88 C
TK412059C
JR778720C
KW741962A
MP 45 27 94 D
NB 08 72 53 C
RT099980A
NR681335D
WK 20 13 96 A
PB185715B
EJ 53 95 16 C
NW418841A
NG576145C
YN918204B
TP485460C
WW 04 65 05 A
LL249107C
CL783187A
BH404409D
AC118741C
WM 06 35 79 A
BK301639B
EK717912A
BJ 62 43 65 A
EP237673C
HN604085A
PC 21 04 49 A
TJ 40 09 00 B
ZY509194B
LP081505D
KA 96 01 91 C
KB 08 34 59 D
TA719051A
LK 32 28 86 A
XJ310460A
ER 29 78 78 B
TG 45 40 27 B
GX 99 99 59 B
GW 40 52 40 D
YB340446A
EW 22 72 43 A
RH 67 75 25 A
TB639708A
TJ 97 73 70 D
GH 82 83 83 B
KA 75 90 86 C
AH593561C
EZ 32 00 58 C
CJ 73 08 64 A
RH 85 87 93 D
TH 15 02 85 C
YJ 53 73 03 C
EB347177A
TY390330D
XJ 17 70 29 B
XL 57 77 37 D
RA 51 98 42 B
XH 25 83 10 A
ME774827D
ZJ 98 14 26 D
YT482446A
NE 38 78 50 D
WG079327C
EG713628B
CY417354D
WK207396B
BR 11 93 53 B
ZM005919B
KG 66 20 96 B
XM 79 68 58 D
RK 59 65 38 C
CZ 20 23 52 D
NW 78 85 18 A
NG897652A
XX 87 49 18 C
WA646129C
JC 02 18 77 A
TM 91 36 23 B
YK 01 45 73 B
GE133046B
HW382713C
RJ 11 11 37 B
JH 77 29 39 B
TL064980B
EN730292A
ZR714976A
ZT580258C
XM 05 94 37 C
ZC 09 42 14 C
XA140565C
JY 51 14 27 B
MB906270C
HR237408A
JJ 56 94 55 B
CE 04 97 64 B
JT566497B
CH 58 74 92 A
JX 47 37 25 D
BR194179C
TR 96 00 47 D
ZL 18 90 15 B
GK472823B
KY537301C
GL 57 41 58 C
BK 85 03 37 A
WL575492D
LT 07 16 56 B
HM787765B
PH 92 87 00 B
GA 04 97 46 D
PR557573C
YP 48 89 56 C
LM505545D
LK287059D
TL 02 35 80 C
MX 61 67 84 B
BW 62 10 32 C
PG769982D
XL 02 27 78 C
LN865739C
GE 23 28 36 C
KH270767A
MP089209B
YM724813C
NG 85 88 90 D
LK537407B
KR 48 75 95 C
MM791633D
LX 30 62 91 B
WL 11 85 52 A
CR 11 23 49 B
PJ962673C
KL 79 69 94 B
YL200362C
BY 01 76 54 C
PB431086D
HZ033938D
RJ 23 35 86 B
EK 84 00 02 D
HY 23 71 96 A
RP762805D
RA 48 87 89 A
BT582301A
PN215749A
EN757263B
CA 46 96 19 A
NK 99 21 47 A
EX905248B
WA493903A
XY556608B
JN625855D
BL 77 59 80 D
PE049067B
JH054217B
LZ883094C
PA706837D
EM019493A
LJ 75 69 75 C
ZA730971B
EM 31 38 00 C
KH 99 85 64 D
HH262011D
BJ796234B
GT406794B
BW338316C
AG408036B
LA 91 26 62 D
KT638646C
TX504974B
CN516706C
KJ185846D
BL120882A
BA 34 20 58 B
YJ958099D
LY 36 94 89 D
CH 32 56 41 A
LA 52 25 29 D
KY 65 82 96 D
JT 83 65 10 A
YC 00 46 15 B
BX331113B
WX092366B
LJ498512C
MH993528C
WB846703C
TA 41 96 71 C
NL965904A
TJ 19 64 19 B
MT843945A
HG502893C
CK893368B
NR274513A
HT896272A
EJ 86 94 83 B
KX440218C
AE 75 95 42 C
MC004660C
XE 69 86 02 B
ZR530898D
GM 04 14 18 D
NW319544B
YL 20 44 10 B
KT145791B
JL942853A
WW625392B
TG 43 82 61 C
BX720443B
WG438935C
CK 13 59 96 C
WW066962B
AG213460A
MM183919B
HB 56 12 65 C
AT219437C
EW 83 86 34 A
NG213141B
BM 07 95 27 D
HZ 35 53 74 A
CR790599C
PC 57 38 26 A
MK755691A
AZ813026D
RZ978881D
YE685397D
EX931729D
PL 10 79 01 B
XW 12 55 57 B
WZ726296B
LZ968312C
MC 53 53 63 B
TE066935B
NE551525A
HT 34 62 34 B
AC 48 31 77 B
XH 00 25 32 C
TZ289361C
YG217249A
WL391628B
WL670469B
KR 50 08 00 B
TX 13 11 28 A
CX 79 79 60 C
MG341993B
AZ 80 84 47 B
RT 61 77 98 B
EE 65 25 77 B
NE 74 18 11 D
RK947726D
MJ521598A
CP394446A
RW830429D
NW617211C
YA144734A
YB641870A
JJ 62 59 31 D
LL 37 81 20 D
TY 78 19 16 D
JH639855B
JN053332A
XX908904D
MN078734D
EG231455C
AH 23 36 86 D
WT 73 90 68 B
HZ196373A
BT 00 67 77 D
HT 53 41 29 D
TL 28 01 74 D
WE919275A
BG 96 69 96 C
CC 54 24 55 C
HL 25 24 08 A
AM338943A
NH030135D
BW867856D
NJ 24 89 45 C
ZR888880D
JL891970B
GT 69 71 91 B
MW255818A
YM 72 24 54 B
CX016647B
KJ678964A
ZC 25 20 32 D
TK723592C
GZ914225B
GJ 27 46 69 B
PH574792D
RX 48 08 32 D
ZW786513D
LA 08 35 63 C
LX 33 80 60 D
NW419822A
JJ386010D
HJ 21 68 73 A
JW 28 47 88 D
ZK328729C
PL 24 81 88 C
PN 45 01 29 D
EH991730B
HP 60 19 74 B
EZ390296D
TX667423D
BE 30 26 12 A
BT 40 72 56 B
RZ 25 43 88 C
YJ 02 27 52 B
XM 18 66 85 D
LM 73 28 60 B
GC115528B
RR341093A
LG 15 02 35 C
CM 80 67 66 A
AX464462C
HX437023C
LC447370B
NB 36 87 37 B
NP953499C
HP328561D
BL954370C
EM956078C
KM 54 10 99 D
HP474156D
KP761734D
MA208545A
XA311222B
ZW 04 71 97 B
ME 71 91 81 B
NY 23 95 44 D
CY 50 71 21 B
LZ792406C
AE 55 46 10 A
HE 24 87 25 D
EN656919A
YL 03 04 94 A
RG106129C
BZ 32 66 82 C
KB097866B
PA308864B
MK029046D
LX 09 67 01 D
MB 18 03 11 C
PB821135D
XM525209C
LA392103B
XP096759A
KK739489A
ZM 59 09 25 D
GG 75 17 85 D
AH 10 15 24 D
HR 03 13 04 B
NP583407B
KP735212C
XB327266B
XN 27 86 47 C
YB156452D
GZ 47 04 43 B
PL 90 88 98 C
RC 08 89 58 D
MC 61 76 66 D
YK104263A
AP 18 31 85 A
GY 84 25 14 A
BP 37 74 89 D
NL330409C
XY052210B
TW042211C
WY550569C
JP 36 95 83 C
WH018279B
HN251994B
TW397122B
AB275477B
KY 47 85 91 D
AN 52 24 09 B
YC739265B
PP645279D
EP 40 65 59 D
EC 82 98 61 C
PY558937C
BL524275D
AP522836D
XE 01 22 23 C
EA968509B
KM 60 48 64 D
JT 56 57 75 C
PH 30 30 13 A
CJ808059A
KJ 70 98 75 D
TZ 51 02 64 A
EE 36 13 20 A
GA208435D
EZ155812D
WE661209B
NW620023C
NM 60 92 72 B
RR 00 73 11 A
RP052173D
LC866924C
NM 28 30 76 A
XG 39 32 86 C
YR884896C
ME944826B
RG 57 76 57 A
GM925582B
CP 27 80 32 D
AH523029C
HJ518870A
CM 90 98 34 D
HK647631C
XB 62 08 82 D
WX143329B
TE110390D
HH 58 58 49 D
ZG845994B
EX115138B
YX 01 78 04 C
KR 12 93 74 C
GM 53 37 02 D
AX488102D
GB744491A
CR204385B
KJ 64 54 22 C
PH 23 37 85 D
NE346766C
EZ 29 59 18 C
AA 31 96 41 C
GC 60 81 21 C
LN834003C
LA764522C
PL448202C
ML360448B
EG725432D
LZ028943B
ZW 67 89 63 B
WY 84 79 14 C
WL 48 74 12 C
PB636818B
PG 44 44 61 D
EY128919B
CA948185A
TA912622A
XX895617A
TR375185C
HG 52 44 69 C
NA 34 87 46 C
KT 60 44 05 D
AW 97 33 22 B
BJ291828D
WA 57 18 76 C
BC127982B
AP 18 04 16 A
PM043922C
GL 91 85 57 A
PK387145C
LJ 21 05 13 D
PX 19 13 05 D
LG929468B
AJ664501D
BJ 42 53 82 C
HH186624B
NM 20 48 60 A
LE024652C
CK 36 29 38 B
HC647259A
JZ179525D
ZJ113369A
YK662293A
MZ092374C
XG000416B
MW190398A
XA593147B
TG700526B
BR347430B
TN628161C
CC079589D
NX098175C
XP121376D
TP218254A
HJ 91 38 30 B
RJ419685C
AE064769A
RP 75 78 19 A
KT 06 59 32 A
TM 05 81 79 A
PK 75 69 08 C
WM 49 24 36 C
RL802146A
BN229283A
JZ368675D
YZ767350A
MC 45 76 19 C
GM 09 97 94 A
EZ 43 66 38 D
JL 25 36 62 A
ZH 94 74 92 D
YG314002B
GN 34 34 06 B
CX776929D
JC721879C
MY109087C
EK 49 51 05 A
GE102568A
HN446316D
NN152169C
HW 71 66 34 D
EK 04 30 88 C
PZ 53 12 85 B
CP 94 42 99 A
BR 72 22 56 C
GB 35 26 65 A
RL 93 23 96 D
CX 14 49 62 B
PB 65 76 07 B
YL365056D
BB289882B
WT 56 42 78 C
NA 56 71 51 A
WP200774B
EC919401B
XB 28 23 04 D
BB 20 05 20 D
KW 25 03 98 A
NK625494C
AB540089A
WM396287A
PR077619A
RW 56 17 66 B
BE 75 50 13 D
TJ 94 26 58 B
YB 73 87 98 A
LA121983B
CP455476B
TY 21 16 30 A
WB 45 54 22 C
MZ082373D
KE637671D
CL788590A
BT 83 90 15 D
JG762012C
LN 75 85 46 D
BC819960D
GA 91 65 00 C
XN 00 42 08 D
BR849692C
CY 42 45 77 B
YH466992B
MG872147C
AT 09 78 03 D
PP 09 35 47 D
PB 19 35 23 B
JL 72 03 09 D
BY399108B
YA 25 73 97 B
LT 39 65 01 B
PK 85 73 88 C
CR986876D
MJ 17 22 48 D
WJ 46 37 21 B
WB 22 56 37 B
MN 08 99 73 D
ZZ 44 75 09 C
TM606888A
RE602235B
KM 94 38 21 A
JY124640A
BA863208A
BM035291A
RL886932D
JK922239D
GK 68 55 51 D
HT151676A
MR 04 64 66 C
JK506312B
ZJ690192D
YZ 87 87 12 C
GA989884B
LX 41 56 30 A
WG 52 04 46 A
TH442708D
RT 00 26 40 B
CT 70 09 16 C
